Version 4
SHEET 1 1700 708
WIRE -384 -128 -432 -128
WIRE -368 -128 -384 -128
WIRE -672 -112 -752 -112
WIRE -608 -112 -672 -112
WIRE -496 -112 -512 -112
WIRE -1344 -96 -1680 -96
WIRE -1248 -96 -1344 -96
WIRE -1168 -96 -1184 -96
WIRE -1120 -96 -1168 -96
WIRE -1040 -96 -1056 -96
WIRE -960 -96 -1040 -96
WIRE -928 -96 -960 -96
WIRE -832 -96 -864 -96
WIRE -816 -96 -832 -96
WIRE -752 -96 -752 -112
WIRE -752 -96 -768 -96
WIRE -1680 -64 -1680 -96
WIRE -800 -64 -816 -64
WIRE -816 -48 -816 -64
WIRE -1216 -32 -1216 -64
WIRE -816 -32 -816 -48
WIRE 912 -32 880 -32
WIRE 992 -32 960 -32
WIRE -1040 -16 -1040 -96
WIRE -960 -16 -976 -16
WIRE -896 -16 -896 -64
WIRE -896 -16 -960 -16
WIRE 912 0 912 -32
WIRE 960 0 960 -32
WIRE 992 0 992 -32
WIRE -1216 16 -1216 -32
WIRE -512 16 -512 -112
WIRE -352 16 -512 16
WIRE -128 32 -288 32
WIRE -48 32 -128 32
WIRE 896 48 784 48
WIRE 1056 48 976 48
WIRE 1136 48 1056 48
WIRE 1552 48 1216 48
WIRE 1600 48 1552 48
WIRE 1632 48 1600 48
WIRE 784 80 784 48
WIRE 1056 80 1056 48
WIRE 1552 80 1552 48
WIRE 1632 80 1632 48
WIRE -1216 160 -1216 96
WIRE -1680 176 -1680 16
WIRE -800 176 -800 80
WIRE 784 176 784 160
WIRE 1056 176 1056 144
WIRE 1056 176 784 176
WIRE 1552 176 1552 144
WIRE 1552 176 1056 176
WIRE 1632 176 1632 160
WIRE 1632 176 1552 176
WIRE 1056 224 1056 176
FLAG -384 -128 vc1
FLAG -128 32 vc2
FLAG -672 -112 mod
FLAG 1056 224 0
FLAG -1216 160 0
FLAG -1680 176 0
FLAG 1600 48 out
FLAG -960 -96 m*_p
FLAG -960 -16 m*_i
FLAG -1344 -96 cons
FLAG -1216 -32 mes
FLAG -800 176 0
FLAG -1168 -96 diff
FLAG 880 -32 vc1
FLAG 992 0 0
FLAG -816 -48 0
SYMBOL ind 1120 64 R270
WINDOW 0 32 56 VTop 2
WINDOW 3 5 56 VBottom 2
SYMATTR InstName L1
SYMATTR Value {L}
SYMBOL diode 1072 144 R180
WINDOW 0 24 64 Left 2
WINDOW 3 24 0 Left 2
SYMATTR InstName D1
SYMATTR Value IDI
SYMBOL voltage 784 64 R0
SYMATTR InstName V1
SYMATTR Value {E}
SYMBOL cap 1536 80 R0
SYMATTR InstName C1
SYMATTR Value {C}
SYMBOL res 1616 64 R0
SYMATTR InstName R1
SYMATTR Value 10
SYMBOL LTspiceControlLibrary\\PulseModulations\\PWM -592 -80 R0
WINDOW 3 -255 -87 Left 2
WINDOW 123 118 -122 Left 2
SYMATTR Value Vin1=0 Vin2=1 Tperiod=1e-4
SYMATTR Value2 Tdelay=0 tripdt=Tdead
SYMATTR InstName U1
SYMBOL LTspiceControlLibrary\\PulseModulations\\ComplementaryBufferWithDeadtime -496 -176 R0
SYMATTR InstName U2
SYMATTR Value Tdead={Tdead} tripdt={Tdead} *0.5
SYMBOL LTspiceControlLibrary\\PulseModulations\\ComplementaryBufferWithDeadtime -352 -48 R0
SYMATTR InstName U3
SYMATTR Value Tdead={Tdead} tripdt={Tdead} *0.5
SYMBOL bv -1216 0 R0
SYMATTR InstName B1
SYMATTR Value V=V(out)
SYMBOL voltage -1680 -80 R0
WINDOW 123 0 0 Left 0
WINDOW 39 0 0 Left 0
SYMATTR InstName V2
SYMATTR Value PULSE(0 160 0 10p 10p 50e-3 100e-3)
SYMBOL sub -1232 -64 R0
SYMATTR InstName U4
SYMBOL Integral -1024 16 R0
SYMATTR Value T={1/150}
SYMATTR InstName U5
SYMBOL Proportional -1104 -64 R0
SYMATTR InstName U6
SYMATTR Value K=71.1e-3
SYMBOL add -912 -64 R0
SYMATTR InstName U7
SYMBOL add -816 -64 R0
SYMATTR InstName U8
SYMBOL bv -800 -16 R0
SYMATTR InstName B2
SYMATTR Value V=V(out)/E
SYMBOL sw 992 48 R90
SYMATTR InstName S1
SYMATTR Value IDEAL
TEXT 672 544 Left 2 !.param L=0.005 E=200 C=1.25e-6 Tdead=10p Rdson=10p Roc=10e6
TEXT 672 520 Left 2 !.tran 0 300e-3 140e-3 1e-6
TEXT 672 576 Left 2 !.model IDI D(Ron=Rdson Roff=Roc Vfwd=0)
TEXT 672 600 Left 2 !.model IDEAL SW(Ron=Rdson,Roff=Roc,Vt=0.5)
TEXT -1424 -200 Left 4 ;Controller
