Version 4
SHEET 1 1080 948
WIRE -992 -80 -1040 -80
WIRE -976 -80 -992 -80
WIRE -2048 -64 -2384 -64
WIRE -1952 -64 -2048 -64
WIRE -1872 -64 -1888 -64
WIRE -1824 -64 -1872 -64
WIRE -1808 -64 -1824 -64
WIRE -1664 -64 -1744 -64
WIRE -1632 -64 -1664 -64
WIRE -1280 -64 -1568 -64
WIRE -1216 -64 -1280 -64
WIRE -1104 -64 -1120 -64
WIRE -2384 -32 -2384 -64
WIRE -1920 16 -1920 -32
WIRE -1824 16 -1824 -64
WIRE -1744 16 -1824 16
WIRE -1664 16 -1680 16
WIRE -1600 16 -1600 -32
WIRE -1600 16 -1664 16
WIRE 304 16 272 16
WIRE 384 16 352 16
WIRE 304 48 304 16
WIRE 352 48 352 16
WIRE 384 48 384 16
WIRE -1920 64 -1920 16
WIRE -1120 64 -1120 -64
WIRE -960 64 -1120 64
WIRE -736 80 -896 80
WIRE -656 80 -736 80
WIRE 288 96 176 96
WIRE 448 96 368 96
WIRE 528 96 448 96
WIRE 944 96 608 96
WIRE 992 96 944 96
WIRE 1024 96 992 96
WIRE 176 128 176 96
WIRE 448 128 448 96
WIRE 944 128 944 96
WIRE 1024 128 1024 96
WIRE -2384 208 -2384 48
WIRE -1920 208 -1920 144
WIRE 176 224 176 208
WIRE 448 224 448 192
WIRE 448 224 176 224
WIRE 944 224 944 192
WIRE 944 224 448 224
WIRE 1024 224 1024 208
WIRE 1024 224 944 224
WIRE 448 272 448 224
FLAG -992 -80 vc1
FLAG -736 80 vc2
FLAG -1280 -64 mod
FLAG 448 272 0
FLAG -1920 208 0
FLAG -2384 208 0
FLAG 992 96 out
FLAG -1664 -64 m*_p
FLAG -1664 16 m*_i
FLAG -2048 -64 cons
FLAG -1920 16 mes
FLAG -1872 -64 diff
FLAG 272 16 vc1
FLAG 384 48 0
SYMBOL ind 512 112 R270
WINDOW 0 32 56 VTop 2
WINDOW 3 5 56 VBottom 2
SYMATTR InstName L1
SYMATTR Value {L}
SYMBOL diode 464 192 R180
WINDOW 0 24 64 Left 2
WINDOW 3 24 0 Left 2
SYMATTR InstName D1
SYMATTR Value IDI
SYMBOL voltage 176 112 R0
SYMATTR InstName V1
SYMATTR Value {E}
SYMBOL cap 928 128 R0
SYMATTR InstName C1
SYMATTR Value {C}
SYMBOL res 1008 112 R0
SYMATTR InstName R1
SYMATTR Value 3
SYMBOL LTspiceControlLibrary\\PulseModulations\\PWM -1200 -32 R0
WINDOW 3 -255 -87 Left 2
WINDOW 123 118 -122 Left 2
SYMATTR Value Vin1=0 Vin2=1 Tperiod=1e-4
SYMATTR Value2 Tdelay=0 tripdt=Tdead
SYMATTR InstName U1
SYMBOL LTspiceControlLibrary\\PulseModulations\\ComplementaryBufferWithDeadtime -1104 -128 R0
SYMATTR InstName U2
SYMATTR Value Tdead={Tdead} tripdt={Tdead} *0.5
SYMBOL LTspiceControlLibrary\\PulseModulations\\ComplementaryBufferWithDeadtime -960 0 R0
SYMATTR InstName U3
SYMATTR Value Tdead={Tdead} tripdt={Tdead} *0.5
SYMBOL bv -1920 48 R0
SYMATTR InstName B1
SYMATTR Value V=V(out)
SYMBOL voltage -2384 -48 R0
WINDOW 123 0 0 Left 0
WINDOW 39 0 0 Left 0
SYMATTR InstName V2
SYMATTR Value PULSE(0 100 0 10p 10p 50e-3 100e-3)
SYMBOL sub -1936 -32 R0
SYMATTR InstName U4
SYMBOL Integral -1728 48 R0
SYMATTR InstName U5
SYMATTR Value T={1/1.5}
SYMBOL Proportional -1792 -32 R0
SYMATTR InstName U6
SYMATTR Value K=0.00075
SYMBOL add -1616 -32 R0
SYMATTR InstName U7
SYMBOL sw 384 96 R90
SYMATTR InstName S1
SYMATTR Value IDEAL
TEXT 64 592 Left 2 !.param L=0.005 E=200 C=1.25e-6 Tdead=10p Rdson=10p Roc=10e6
TEXT 64 568 Left 2 !.tran 0 300e-3 140e-3 1e-6
TEXT 64 624 Left 2 !.model IDI D(Ron=Rdson Roff=Roc Vfwd=0)
TEXT 64 648 Left 2 !.model IDEAL SW(Ron=Rdson,Roff=Roc,Vt=0.5)
TEXT -2032 -152 Left 4 ;Controller
